Version 4
SHEET 1 3760 680
WIRE 288 -272 288 -304
WIRE 288 -176 288 -192
WIRE 912 -96 880 -96
WIRE 1024 -96 992 -96
WIRE 1312 -64 1152 -64
WIRE 576 -48 576 -80
WIRE 3152 -32 3152 -80
WIRE 2496 -16 2496 -64
WIRE 3264 -16 3200 -16
WIRE 2448 0 2400 0
WIRE 944 32 944 0
WIRE 3216 32 3200 32
WIRE 464 48 192 48
WIRE 576 48 576 32
WIRE 576 48 528 48
WIRE 704 48 576 48
WIRE 752 48 704 48
WIRE 880 48 880 -96
WIRE 880 48 832 48
WIRE 912 48 880 48
WIRE 1232 48 1232 16
WIRE 1744 48 1744 16
WIRE 2448 48 2432 48
WIRE 3216 48 3216 32
WIRE 576 64 576 48
WIRE 1024 64 1024 -96
WIRE 1024 64 976 64
WIRE 1152 64 1152 -64
WIRE 1200 64 1152 64
WIRE 1712 64 1360 64
WIRE 2432 64 2432 48
WIRE 912 80 896 80
WIRE 1312 80 1312 -64
WIRE 1312 80 1264 80
WIRE 1360 80 1360 64
WIRE 1360 80 1312 80
WIRE 2000 80 1776 80
WIRE 1024 96 1024 64
WIRE 1200 96 1024 96
WIRE 1664 96 1424 96
WIRE 1712 96 1664 96
WIRE 192 128 192 48
WIRE 944 128 944 96
WIRE 1232 144 1232 112
WIRE 1744 144 1744 112
WIRE 576 160 576 144
WIRE 2400 160 2400 0
WIRE 2400 160 2128 160
WIRE 3264 160 3264 -16
WIRE 3440 160 3264 160
WIRE 2000 176 2000 80
WIRE 2064 176 2000 176
WIRE 2496 176 2496 64
WIRE 2544 176 2496 176
WIRE 2672 176 2624 176
WIRE 2784 176 2672 176
WIRE 2976 176 2864 176
WIRE 3024 176 2976 176
WIRE 3152 176 3152 48
WIRE 3152 176 3104 176
WIRE 3584 176 3504 176
WIRE 800 192 800 160
WIRE 2400 192 2128 192
WIRE 2672 192 2672 176
WIRE 2976 192 2976 176
WIRE 3440 192 3264 192
WIRE 192 256 192 208
WIRE 800 288 800 272
WIRE 896 288 896 80
WIRE 896 288 800 288
WIRE 2672 288 2672 256
WIRE 2976 288 2976 256
WIRE 800 304 800 288
WIRE 1424 304 1424 96
WIRE 3152 320 3152 176
WIRE 2496 336 2496 176
WIRE 3264 336 3264 192
WIRE 3264 336 3200 336
WIRE 2400 352 2400 192
WIRE 2448 352 2400 352
WIRE 3216 384 3200 384
WIRE 2448 400 2432 400
WIRE 3216 400 3216 384
WIRE 800 416 800 384
WIRE 1312 416 1152 416
WIRE 1424 416 1424 384
WIRE 2432 416 2432 400
WIRE 3152 448 3152 400
WIRE 2496 464 2496 416
WIRE 1232 528 1232 496
WIRE 1744 528 1744 496
WIRE 1152 544 1152 416
WIRE 1200 544 1152 544
WIRE 1712 544 1584 544
WIRE 1312 560 1312 416
WIRE 1312 560 1264 560
WIRE 1584 560 1584 544
WIRE 1584 560 1312 560
WIRE 3584 560 3584 176
WIRE 3584 560 1776 560
WIRE 704 576 704 48
WIRE 1200 576 704 576
WIRE 1664 576 1664 96
WIRE 1712 576 1664 576
WIRE 1232 624 1232 592
WIRE 1744 624 1744 592
FLAG 192 256 0
FLAG 576 160 0
FLAG 576 -80 sup
FLAG 288 -176 0
FLAG 288 -304 sup
FLAG 944 0 sup
FLAG 944 128 0
FLAG 800 416 0
FLAG 800 160 sup
FLAG 1232 144 0
FLAG 1232 624 0
FLAG 1232 16 sup
FLAG 1232 496 sup
FLAG 1424 416 0
FLAG 1744 144 0
FLAG 1744 624 0
FLAG 1744 16 sup
FLAG 1744 496 sup
FLAG 2432 64 0
FLAG 2432 416 0
FLAG 3216 48 0
FLAG 3216 400 0
FLAG 2496 464 0
FLAG 3152 448 0
FLAG 2496 -64 sup
FLAG 3152 -80 sup
FLAG 2672 288 0
FLAG 2976 288 0
SYMBOL voltage 192 112 R0
WINDOW 123 0 0 Left 0
WINDOW 39 0 0 Left 0
SYMATTR InstName V1
SYMATTR Value SINE(0 4 1k 0 0 0)
SYMBOL cap 528 32 R90
WINDOW 0 0 32 VBottom 2
WINDOW 3 32 32 VTop 2
SYMATTR InstName C1
SYMATTR Value 100n
SYMBOL res 560 -64 R0
SYMATTR InstName R1
SYMATTR Value 10k
SYMBOL res 560 48 R0
SYMATTR InstName R2
SYMATTR Value 10k
SYMBOL voltage 288 -288 R0
WINDOW 123 0 0 Left 0
WINDOW 39 0 0 Left 0
SYMATTR InstName V2
SYMATTR Value 10
SYMBOL res 848 32 R90
WINDOW 0 0 56 VBottom 2
WINDOW 3 32 56 VTop 2
SYMATTR InstName R3
SYMATTR Value 100k
SYMBOL res 784 176 R0
SYMATTR InstName R4
SYMATTR Value 10k
SYMBOL res 784 288 R0
SYMATTR InstName R5
SYMATTR Value 10k
SYMBOL res 1008 -112 R90
WINDOW 0 0 56 VBottom 2
WINDOW 3 32 56 VTop 2
SYMATTR InstName R6
SYMATTR Value 100k
SYMBOL OpAmps\\UniversalOpAmp 944 64 R0
SYMATTR InstName U1
SYMBOL OpAmps\\UniversalOpAmp 1232 80 R0
SYMATTR InstName U2
SYMBOL OpAmps\\UniversalOpAmp 1232 560 R0
SYMATTR InstName U3
SYMBOL Comparators\\LT1721 1744 16 R0
SYMATTR InstName U4
SYMBOL Comparators\\LT1721 1744 496 R0
SYMATTR InstName U5
SYMBOL voltage 1424 288 R0
WINDOW 123 0 0 Left 0
WINDOW 39 0 0 Left 0
SYMATTR InstName V3
SYMATTR Value PULSE(0 10 0 5u 5u 1n 10u)
SYMBOL Digital\\buf 2064 112 R0
WINDOW 123 -23 123 Left 2
SYMATTR InstName A1
SYMATTR Value2 vt=5 vhigh=10 vlow=0
SYMBOL Digital\\buf 3504 112 M0
WINDOW 123 -46 127 Left 2
SYMATTR InstName A2
SYMATTR Value2 vt=5 vhigh=10 vlow=0
SYMBOL sw 2496 80 M180
SYMATTR InstName S1
SYMBOL sw 2496 432 M180
SYMATTR InstName S2
SYMBOL sw 3152 64 R180
SYMATTR InstName S3
SYMBOL sw 3152 416 R180
SYMATTR InstName S4
SYMBOL ind 2640 160 R90
WINDOW 0 5 56 VBottom 2
WINDOW 3 32 56 VTop 2
SYMATTR InstName L1
SYMATTR Value 10µ
SYMBOL ind 3120 160 R90
WINDOW 0 5 56 VBottom 2
WINDOW 3 32 56 VTop 2
SYMATTR InstName L2
SYMATTR Value 10µ
SYMBOL res 2880 160 R90
WINDOW 0 0 56 VBottom 2
WINDOW 3 32 56 VTop 2
SYMATTR InstName R7
SYMATTR Value 100
SYMBOL cap 2656 192 R0
SYMATTR InstName C2
SYMATTR Value 1000n
SYMBOL cap 2960 192 R0
SYMATTR InstName C3
SYMATTR Value 1000n
TEXT 192 24 Left 2 ;Input signal
TEXT 184 408 Left 2 !.tran 0 5m 2m .1u
TEXT 1144 256 Left 2 ;Local triangle oscillator
TEXT 176 360 Left 2 !.model sw sw (Ron=.1 Roff=1Meg Vt=5)
